+
+/-
+OH
=
&
0.4-mb
0_AEQ
1,2-DHI
1-ethyl-2-methylbenzene
1-hydroxy-2-hydroperoxy
1-(nitrooxy)-
10102-44-0_Nitrate
180_VEQ
1o_BpHN
1xCO2
2-(2-Butoxyethoxy)ethanol
2-(3-Acetyl-2,2-dimethylcyclobutyl)acetaldehyde
2-Decyl
2-Methyl-3-buten-1-ol
2-Methylbut-3-ene-1
2-methylbut-3-ene-1
2-methylbut-3-ene-1,2-diol
2-Methylundecane
2-Propanone
2,2,4,4-Tetramethyloctane
2,2,4,6,6-Pentamethylheptane
2,3-Dimethyldecane
2,3,3-Trimethyldecane
2,3,6,7-Tetramethyloctane
2,4-DIMETHYLPHENOL
2,4-DMP
2,6-Dimethyldecane
2,6,10-Trimethyldodecane
20CRv3-WRF
270_SSOL
2o_LmHN
2xCO2
3-Decyl
3-Dodecanone
3,4-Diethylhexane
3o_ApHN
4-Decyl
4-hydroxy-3-hydroperoxy
4-km
4-nitrocatechol
4-OH
4-OH-3-ONO2-ISOPN
4,3-ISOPOOH
4,4-Dipropylheptane
4xCO2
5-Decyl
90_WSOL
A-/I-
a-pinene+NO3
A&M
acid_C6_continuous
acid/Acetonitrile_Hydroxyl
AgiaMarina_Xyliatou
AI-based
All-Hist
Amer.
AmeriFlux
AMIP-type
ammc
AMV+
AMV-
AMV-related
APO-MIP
Arakawa-Schubert
Argo
ARISE-SAI-1.5
babj
BCC-CSM2-MR
b-caryophyllene
b-ocimene
b-pinene
b-pinene-derived
beta-IEPOX
Bull.
C-band
C4-hydroxy-carbonyl
Cairo_EMA_2
CAM7's
CAM-chem
Candice&Sara
CD-ROM
CE-CERT
cell/pixel-registration
Centre
CESM/CAM-chem-SE
CESM-cocco
CESM1-CAM5
cesm2_0_alpha10d
CESM2-CISM2
CF3O-
CH2OO+H2O
CH3CH2C(O)OCH(O.)CH3
chloride_DarkReactiveUptake_RH60
chloride_DarkReactiveUptake_RH86
Cl
Cl-atom
Cl-initiated
Cl2
(CMIP)-class
CMIP-class
CMIP6-PMIP4
CMORization
CMORize
CMORized
CMORizer
CONUS-wide
CrIS
CRUNCEPv7
CSIRO-Mk3-6-0
CUT-TEPAK
cwao
CY31r1
CY31r2
CY38r1
CY41r2
d-3-carene
DATSAV
dBZ
DE-AC02-05CH11231
DE-AC05-00OR22725
degreeC
DEWA_ResearchCentre
dioxide/Ozone/Formaldehyde_Nitrate
Dr.
ecmf
e.g.
e.g.,
ECC_0
EGDBE(A)
EESI-MS
egrr
El_Farafra
EOLE
ERA5_850hpawinds
ERA5_hourlyIVT
ERA5_IWV
exp1
exp2
extSPCZ-A
facto
FastEddy
FV1_gx1v6
g-terpinene
gamma-Terpinene
gamma-Terpinene_Nitrate
GC-CIMS
GC-FID
GC1
GC1,2
GCM/Mixed-layer
Geo
GEOS-Chem
glyoxal/H2O
GPM_3IMERGDF
GPM_3IMERGHH
grid/node-registration
GridRad
GridRad.org
GridRad-Severe
GrIS
Guan_Waliser_v2
H2O2
H2O2_Hydroxyl
H2SO4_70%
HadISD.1.0.0.2011f
HadISD.1.0.0.2012p
HadISST1
HadISST.2
Hadley-OI
HadSST2
half_CO2
HC(=O)OCH(O.)CH3
HC(O)OCH(O.)CH3
HCl
HeatRisk
hi_obliq
high-NOx
HMPR-PAN
hoc
hs
hv
hydro-climate
hydro-climatic
Hydro-Climatic
i.e.
i.e.,
I/A
I-CIMS
IEPOX_None_Ammonium
IEPOX_None_Sodium
IIb
IIc
IIIb
IMS-METU-ERDEMLI
Inc.
instr_num
iPOGS
IPSL-CM5B-LR
IPSL-CM6A-LR
IR-based
ISOPN/hydrogen
ISOPN/Methyl
ISOPOOH/hydrogen
ISOPOOH_Hydroxyl
ISOPOOH/IEPOX
JG/BG
JPL-Oceans-8902
JRA-3Q-COBE
Jupyter
KAUST_Campus
Kelvin
k-fold
Ku-2000
Ku-2001
Kuwait_University
kwbc
lfpw
lig127ka
LITTLE_R
lo_obliq
m/z
M-234
m-ethyltoluene
m-xylene
MAM4-VBS
Masdar_Institute
Mellor-Yamada-Janjic
MEMP(B)
meso-beta
Meteor.
METH-GPROF-adjusted
MgSO4
Migal
Milli-Q
Minisatellite
mizuRoute
mm/day
mm/hour
mmmm
Mr.
Multi-satellitE
Mundhenk/Nardi
MWprecipitation
N/A
NaCl
NaOH
NaNO3
NAPH+H2O2
(NAS)-funded
NAS-funded
Navy-NOAA
NCAR-supported
ncecat
ne30
NetCDF
NetCDF-4
NH4Cl
Nina-like
nitrite/10102-44-0_Hydroxyl
nitrite/10102-44-0/OZONE_Hydroxyl
nitrite/ammonia_Hydroxyl
NO:NO2
NO-CL
NO3_2
NO3
NO3-
NO3-initiated
NO3/HO2
NO3_1
Noah-MP
no-Anthro
NoBiome
NorESM1
NOx
NSCAT-1
NSCAT-2
(NSF)-funded
NSF-funded
NWM-based
o-ethyltoluene
o-cresol
o-xylene
obs-nudging
O2_#2
O2_#3
O2_again
O2_clone
O2:CO2
O3/HO2
O3/NOx
O3+NO2+H2O2
OH-initiated
OH-oxidation
OH+HMPR-PAN
OH+isop
OH/NOx
OH/NOx_1
OH/NOx_2
OH/NOx_3_NH3
OH/NOx_highConc
OH/NOx_highNO
OH/NOx_lowConc
OH/NOx_lowVOC:Ox
OH/NOx_TPTD
OHchem
OldWeather3
OldWeather.org
oxide/_Hydroxyl
oxide/1-Decanol_Hydroxyl
oxide/1-DODECANOL_Hydroxyl
oxide/2-Decanol_Hydroxyl
oxide/2-Decyl
oxide/2-Dodecanone_Hydroxyl
oxide/3-Decanol_Hydroxyl
oxide/3-Decyl
oxide/3-Dodecanone_Hydroxyl
oxide/4-Decanol_Hydroxyl
oxide/4-Decyl
oxide/4-Dodecanone_Hydroxyl
oxide/5-Decanol_Hydroxyl
oxide/5-Decyl
oxide/5-Dodecanone_Hydroxyl
oxide/5-Undecanol_Hydroxyl
oxide/6-Dodecanone_Hydroxyl
oxide/6-Undecanol_Hydroxyl
oxide/ALPHA-PINENE/hydrogen
oxide/Ammonia_Hydroxyl
oxide/nitrite_Chlorine
oxide/OZONE/formaldehyde_Nitrate
past2k
pb2nc
PelicanFS
peroxide/10102-44-0_Hydroxyl
Peroxide/2-(3-Acetyl-2,2-dimethylcyclobutyl)acetaldehyde_Nitrate
peroxide/Acetonitrile_Hydroxyl
Peroxide/beta-Pinene_Nitrate
Peroxide/Ozone_Hydroxyl
peroxide_Ozone_N/A
PFT-level
pH
PI-CTRL
piControl
PILS-ToF
pinene+NO3
PiPAN
PlioMIP1
PlioMIP2
PlusRCP85
pre-Helene
priori
PTR-MS
Qena_SVU
radical_DOS
radical_N/A
radical_N/A_Isoprene
r1i1p1f1
r6i1p1
README
Reid500
rjtd
rksl
RO2+HO2
RO2+HO2-dominated
RO2+NO3-dominated
RO2+RO2
RO2+RO2-
RO2+RO2-dominated
run001
run002
run003
run004
run005
run006
run007
run008
run009
SA-based
same/next-day
Sara&Weihua
sbsj
sc_PDSI_pm
SCI+H2O
Seasat
SeaWinds
sebacate_E10
sebacate_E11
sebacate_E9
SEDE_BOKER
Shagaya_Park
Shields/Kiehl
sigma-t
slvsubset
Soc.
SPHEREPACK
SSP1-2.6
SSP2-4.5
SSP3-7.0
SSP5-34-OS
SSP5-8.5
SSP5-85
standards/SOA
sulfate_4,3-isoprene
sulfate_60%RH
sulfate_70%RH
sulfate_A5_neutral
sulfate_A8_neutral
sulfate_APN-2
sulfate_DarkReactiveUptake_RH42
sulfate_DarkReactiveUptake_RH53
sulfate_DarkReactiveUptake_RH57
sulfate_DarkReactiveUptake_RH69_addedNaOH
sulfate_DarkReactiveUptake_RHdry
sulfate_E2
sulfate_E3
sulfate_E4
sulfate_E5
sulfate_E6
sulfate_E7
sulfate_E8
sulfate_EPA2013A
sulfate_EPA2286A
sulfate_EPA2286B
sulfate_EPA2290A
sulfate_EPA2290B
sulfate_EPA2292A
sulfate_EPA2292B
sulfate_HO2
sulfate_LIM-2
sulfate_LIM-3
sulfate_med
sulfate_medRH
sulfate_noH2O2
sulfate_RH40%
sulfate_RH50
sulfate_RH85%
sulfate_SEQ-1
Sulfoxide/Acetonitrile_Hydroxyl
Sulfoxide/Acetonitrile/Hydrogen
Sulfoxide/Acetonitrile/Methylene
surrogate/NOx/H2O2_Hydroxyl
surrogate/NOx/H2O2/M-XYLENE_Hydroxyl
surrogate/NOx_Hydroxyl
T-3
t_mean
T31_gx3
TC-like
TC-permitting
TD-LIF
TDF-11
TECA_BARD_v1.0
Tech
Technion_Haifa_IL
TempestExtremes
TempestLR
TerrainBase
TIE-GCM
Tonga-Hunga
Tonga–Hunga
trans-beta-IEPOX
TransientLIG
Tuz_Golu_3
u850
u-
u-component
UADB-TRH
UADB-Wind
UCR-CECERT-APL-Cocker
USArray
v850
v-
v-component
VOC:Cl2
VOC:Ox
Vol.
vs.
vTDMA
vwCPC
Wiezmann_Institute
WindSat
WRF-Hydro
WRF-Lake
WRF-urban
x
xAER
xarray
Xarray
Zarr
