+
+/-
=
&
0.4-mb
0_AEQ
180_VEQ
1xCO2
20CRv3-WRF
270_SSOL
2xCO2
4-hydroxy-3-hydroperoxy
4-km
4-OH-3-ONO2-ISOPN
4,3-ISOPOOH
90_WSOL
Acid_15.6_ug/m3_OA1
All-Hist
A&M
Amer.
AmeriFlux
AMIP-type
ammc
AMV+
AMV-
AMV-related
and/or
APO-MIP
Arakawa-Schubert
Argo
babj
BCC-CSM2-MR
b-pinene
Bull.
C4-hydroxy-carbonyl
CAM7's
CAM-chem
C-band
CD-ROM
CESM1-CAM5
cell/pixel-registration
Centre
CF3O-
Chamber_20210203_DECAMETHYLCYCLOPENTASILOXANE_Hydroxyl
(CMIP)-class
CMIP-class
CMORization
CMORize
CMORized
CMORizer
CONUS-wide
CrIS
CRUNCEPv7
CSIRO-Mk3-6-0
cwao
CY31r1
CY31r2
CY38r1
CY41r2
DATSAV
dBZ
DE-AC02-05CH11231
DE-AC05-00OR22725
degreeC
Dr.
ecmf
e.g.
e.g.,
ECC_0
egrr
EOLE
ERA5_850hpawinds
ERA5_hourlyIVT
ERA5_IWV
extSPCZ-A
facto
GC-FID
GC-FID/PTR-MS/others
GCM/Mixed-layer
Geo
GEOS-Chem
GPM_3IMERGDF
GPM_3IMERGHH
grid/node-registration
GridRad
GridRad.org
GridRad-Severe
Guan_Waliser_v2
HadISD.1.0.0.2011f
HadISD.1.0.0.2012p
HadISST1
HadISST.2
Hadley-OI
HadSST2
half_CO2
HCl
hi_obliq
high-NOx
hoc
hydro-climate
hydro-climatic
Hydro-Climatic
i.e.
i.e.,
I-CIMS
IIb
IIc
IIIb
Inc.
iPOGS
IPSL-CM5B-LR
IPSL-CM6A-LR
IR-based
ISOPN/Methyl
ISOPOOH/hydrogen
ISOPOOH_Hydroxyl
JG/BG
JPL-Oceans-8902
JRA-3Q-COBE
Jupyter
Kelvin
k-fold
Ku-2000
Ku-2001
kwbc
Lab_20170125_1-Hexanol/1-octanol/1-Nonanol/1-DECANOL/Methyl
latitude/longitude
lfpw
lig127ka
LITTLE_R
lo_obliq
M-234
MAM4-VBS
meso-beta
Meteor.
METH-GPROF-adjusted
Milli-Q
Minisatellite
mizuRoute
mm/day
mm/hour
Mr.
Multi-satellitE
Mundhenk/Nardi
MWprecipitation
NaOH
(NAS)-funded
NAS-funded
Navy-NOAA
ncecat
NetCDF
NetCDF-4
Nina-like
NO3
NO3-
Noah-MP
NO-CL
NorESM1
NOx
NSCAT-1
NSCAT-2
(NSF)-funded
NSF-funded
obs-nudging
O2:CO2
O3/HO2
OH-oxidation
OH+isop
OHchem
OldWeather3
OldWeather.org
oxide/_Hydroxyl
oxide/1-DODECANOL_Hydroxyl
oxide/ALPHA-PINENE/hydrogen
oxide/OZONE/formaldehyde_Nitrate
past2k
pb2nc
PelicanFS
PFT-level
pH
piControl
PI-CTRL
PlioMIP1
PlioMIP2
PlusRCP85
priori
PTR-MS
r1i1p1f1
r6i1p1
README
Reid500
rjtd
rksl
run001
run002
run003
run004
run005
run006
run007
run008
run009
same/next-day
sbsj
sc_PDSI_pm
Seasat
SeaWinds
Seed_4,3-ISOPOOH
Seed_Alpha-pinene
Seed_F9toF15
Shields/Kiehl
sigma-t
slvsubset
Soc.
SPHEREPACK
SSP1-2.6
SSP2-4.5
SSP3-7.0
SSP5-34-OS
SSP5-8.5
SSP5-85
standards/SOA
Study_20140107_ISOPRENE/Methyl
Study_20140110_ALPHA-PINENE/hydrogen
Study_20140113_ALPHA-PINENE/nitric
Study_20140114_ISOPRENE/CYCLOHEXANE_Ozone_No
Study_20140116_ALPHA-PINENE/Methyl
Study_20140117_4-hydroxy
Study_20140119_/ISOPRENE/4-hydroxy-3-hydroperoxy
Study_20140124_4-hydroxy-3-nitrooxy
Study_20140125_METHACROLEIN/hydrogen
Study_20140126_METHACROLEIN/nitrogen
sulfate_4,3-isoprene
sulfate_HO2
T31_gx3
T-3
TC-permitting
TD-LIF
TDF-11
TECA_BARD_v1.0
TempestExtremes
TempestLR
TerrainBase
t_mean
Tonga-Hunga
Tonga–Hunga
u850
u-
UADB-TRH
UADB-Wind
u-component
USArray
v850
v-
v-component
Vol.
vs.
WindSat
WRF-Lake
x
xAER
xarray
Xarray
Zarr
