+
+/-
=
&
0.4-mb
0_AEQ
180_VEQ
1xCO2
20CRv3-WRF
270_SSOL
2xCO2
4-hydroxy-3-hydroperoxy
4-km
4-OH-3-ONO2-ISOPN
4,3-ISOPOOH
90_WSOL
A&M
AgiaMarina_Xyliatou
All-Hist
Amer.
AmeriFlux
AMIP-type
ammc
AMV+
AMV-
AMV-related
and/or
APO-MIP
Arakawa-Schubert
Argo
babj
BCC-CSM2-MR
b-pinene
Bull.
C4-hydroxy-carbonyl
Cairo_EMA_2
CAM7's
CAM-chem
C-band
CD-ROM
CESM1-CAM5
cell/pixel-registration
Centre
CF3O-
Chamber_20210203_DECAMETHYLCYCLOPENTASILOXANE_Hydroxyl
(CMIP)-class
CMIP-class
CMORization
CMORize
CMORized
CMORizer
CONUS-wide
CrIS
CRUNCEPv7
CSIRO-Mk3-6-0
CUT-TEPAK
cwao
CY31r1
CY31r2
CY38r1
CY41r2
DATSAV
dBZ
DE-AC02-05CH11231
DE-AC05-00OR22725
degreeC
DEWA_ResearchCentre
dioxide/Ozone/Formaldehyde_Nitrate
Dr.
ecmf
e.g.
e.g.,
ECC_0
EESI-MS
egrr
El_Farafra
EOLE
ERA5_850hpawinds
ERA5_hourlyIVT
ERA5_IWV
extSPCZ-A
facto
GC-FID
GC-FID/PTR-MS/others
GCM/Mixed-layer
Geo
GEOS-Chem
GPM_3IMERGDF
GPM_3IMERGHH
grid/node-registration
GridRad
GridRad.org
GridRad-Severe
Guan_Waliser_v2
HadISD.1.0.0.2011f
HadISD.1.0.0.2012p
HadISST1
HadISST.2
Hadley-OI
HadSST2
half_CO2
HCl
hi_obliq
high-NOx
hoc
hydro-climate
hydro-climatic
Hydro-Climatic
i.e.
i.e.,
I/A
I-CIMS
IIb
IIc
IIIb
IMS-METU-ERDEMLI
Inc.
iPOGS
IPSL-CM5B-LR
IPSL-CM6A-LR
IR-based
ISOPN/Methyl
ISOPOOH/hydrogen
ISOPOOH_Hydroxyl
ISOPOOH/IEPOX
JG/BG
JPL-Oceans-8902
JRA-3Q-COBE
Jupyter
KAUST_Campus
Kelvin
k-fold
Ku-2000
Ku-2001
Kuwait_University
kwbc
latitude/longitude
lfpw
lig127ka
LITTLE_R
lo_obliq
M-234
MAM4-VBS
Masdar_Institute
meso-beta
Meteor.
METH-GPROF-adjusted
Migal
Milli-Q
Minisatellite
mizuRoute
mm/day
mm/hour
Mr.
Multi-satellitE
Mundhenk/Nardi
MWprecipitation
N/A
NaOH
(NAS)-funded
NAS-funded
Navy-NOAA
ncecat
NetCDF
NetCDF-4
Nina-like
NO3
NO3-
NO3/HO2
Noah-MP
NO-CL
NorESM1
NOx
NSCAT-1
NSCAT-2
(NSF)-funded
NSF-funded
obs-nudging
O2:CO2
O3/HO2
O3/NOx
OH-oxidation
OH+isop
OHchem
OldWeather3
OldWeather.org
oxide/_Hydroxyl
oxide/1-DODECANOL_Hydroxyl
oxide/ALPHA-PINENE/hydrogen
oxide/OZONE/formaldehyde_Nitrate
past2k
pb2nc
PelicanFS
PFT-level
pH
PI-CTRL
piControl
PiPAN
PlioMIP1
PlioMIP2
PlusRCP85
priori
PTR-MS
Qena_SVU
radical_N/A_Isoprene
r1i1p1f1
r6i1p1
README
Reid500
rjtd
rksl
run001
run002
run003
run004
run005
run006
run007
run008
run009
same/next-day
sbsj
sc_PDSI_pm
Seasat
SeaWinds
SEDE_BOKER
Shagaya_Park
Shields/Kiehl
sigma-t
slvsubset
Soc.
SPHEREPACK
SSP1-2.6
SSP2-4.5
SSP3-7.0
SSP5-34-OS
SSP5-8.5
SSP5-85
standards/SOA
sulfate_4,3-isoprene
sulfate_HO2
T31_gx3
T-3
TC-permitting
TD-LIF
TDF-11
TECA_BARD_v1.0
Technion_Haifa_IL
TempestExtremes
TempestLR
TerrainBase
t_mean
Tonga-Hunga
Tonga–Hunga
trans-beta-IEPOX
Tuz_Golu_3
u850
u-
UADB-TRH
UADB-Wind
u-component
USArray
v850
v-
v-component
Vol.
vs.
Wiezmann_Institute
WindSat
WRF-Lake
x
xAER
xarray
Xarray
Zarr
